Mass Spectrum: Tetrahydrofuran
Formula: C4 H8 O
CAS: 109-99-9
Molecular weight: 72
Origin: Japan AIST/NIMC Database- Spectrum MS-NW- 76
m/z	RELATIVE INTENSITY
14	60
15	179
16	10
18	10
25	10
26	189
27	1489
28	269
29	759
30	40
31	319
32	60
34	10
37	90
38	179
39	1299
40	829
41	4379
42	9999
43	1559
44	359
45	99
50	20
51	10
53	10
57	10
69	20
70	10
71	3389
72	3829
73	179
